data_CONTCAR
_audit_creation_date              2015-10-12
_audit_creation_method            'Materials Studio'
_symmetry_space_group_name_H-M    'I4/MMM'
_symmetry_Int_Tables_number       139
_symmetry_cell_setting            tetragonal
loop_
_symmetry_equiv_pos_as_xyz
  x,y,z
  -x,-y,z
  -y,x,z
  y,-x,z
  -x,y,-z
  x,-y,-z
  y,x,-z
  -y,-x,-z
  -x,-y,-z
  x,y,-z
  y,-x,-z
  -y,x,-z
  x,-y,z
  -x,y,z
  -y,-x,z
  y,x,z
  x+1/2,y+1/2,z+1/2
  -x+1/2,-y+1/2,z+1/2
  -y+1/2,x+1/2,z+1/2
  y+1/2,-x+1/2,z+1/2
  -x+1/2,y+1/2,-z+1/2
  x+1/2,-y+1/2,-z+1/2
  y+1/2,x+1/2,-z+1/2
  -y+1/2,-x+1/2,-z+1/2
  -x+1/2,-y+1/2,-z+1/2
  x+1/2,y+1/2,-z+1/2
  y+1/2,-x+1/2,-z+1/2
  -y+1/2,x+1/2,-z+1/2
  x+1/2,-y+1/2,z+1/2
  -x+1/2,y+1/2,z+1/2
  -y+1/2,-x+1/2,z+1/2
  y+1/2,x+1/2,z+1/2
_cell_length_a                    16.4429
_cell_length_b                    16.4429
_cell_length_c                    11.3756
_cell_angle_alpha                 90.0000
_cell_angle_beta                  90.0000
_cell_angle_gamma                 90.0000
loop_
_atom_site_label
_atom_site_type_symbol
_atom_site_fract_x
_atom_site_fract_y
_atom_site_fract_z
_atom_site_U_iso_or_equiv
_atom_site_adp_type
_atom_site_occupancy
C1     C     0.10846  -0.10846  -0.50000   0.00000  Uiso   1.00
C29    C     0.35292  -0.35292  -0.50000   0.00000  Uiso   1.00
C2     C     0.23988  -0.23988   0.10638   0.00000  Uiso   1.00
C25    C     0.20065  -0.20065  -0.60654   0.00000  Uiso   1.00
H9     H     0.28467  -0.28467  -0.31278   0.00000  Uiso   1.00
C3     C     0.74228  -0.04149  -0.00000   0.00000  Uiso   1.00
C8     C    -0.32633  -0.43343  -0.50000   0.00000  Uiso   1.00
H1     H     0.41777   0.19006  -0.50000   0.00000  Uiso   1.00
C33    C    -0.17141  -0.17141  -0.50000   0.00000  Uiso   1.00
C37    C    -0.28972  -0.28972  -0.50000   0.00000  Uiso   1.00
H12    H     0.17486   0.17486  -0.68644   0.00000  Uiso   1.00
O1     O    -0.08417  -0.08417  -0.60051   0.00000  Uiso   1.00
N1     N    -0.00000  -0.87642   0.00000   0.00000  Uiso   1.00
Zn1    Zn   -0.00000   0.00000  -0.38282   0.00000  Uiso   1.00
Zn3    Zn    0.00000   0.00000   0.00000   0.00000  Uiso   1.00
loop_
_geom_bond_atom_site_label_1
_geom_bond_atom_site_label_2
_geom_bond_distance
_geom_bond_site_symmetry_2
_ccdc_geom_bond_type
C1     C33     1.464   3     S
C1     O1      1.275   5_554 D
C1     O1      1.275   3     D
C29    C8      1.394   3     S
C29    C8      1.394   5_554 S
C29    C37     1.470   3     S
C2     C37     1.392   20_545 D
C2     C25     1.383   23_544 S
C2     H9      1.082   18_545 S
C25    C2      1.383   23_544 S
C25    C33     1.390   3     S
C25    H12     1.089   4     S
H9     C2      1.082   18_544 S
C3     C8      1.442   18_545 S
C3     C3      1.365   6     D
C3     H1      1.089   23_544 S
C8     C29     1.394   4     S
C8     C3      1.442   18_544 S
C8     N1      1.370   20_544 D
H1     C3      1.089   23_544 S
C33    C1      1.464   4     S
C33    C25     1.390   4     S
C33    C25     1.390   5_554 S
C37    C2      1.392   19_444 D
C37    C2      1.392   22_444 D
C37    C29     1.470   4     S
H12    C25     1.089   3     S
O1     C1      1.275   4     D
O1     Zn1     1.966   5_554 S
N1     C8      1.370   23_544 D
N1     C8      1.370   19_445 D
N1     Zn3     2.032   1_545 S
Zn1    O1      1.966   5_554 S
Zn1    O1      1.966   6_554 S
Zn1    O1      1.966   8_554 S
Zn1    O1      1.966   7_554 S
Zn1    Zn1     2.666   5_554 S
Zn3    N1      2.032   4_655 S
Zn3    N1      2.032   3_455 S
Zn3    N1      2.032   1_565 S
Zn3    N1      2.032   2_545 S
