data_CONTCAR_PPF27
_audit_creation_date              2015-10-21
_audit_creation_method            'Materials Studio'
_symmetry_space_group_name_H-M    'P1'
_symmetry_Int_Tables_number       1
_symmetry_cell_setting            triclinic
loop_
_symmetry_equiv_pos_as_xyz
  x,y,z
_cell_length_a                    16.6814
_cell_length_b                    32.0000
_cell_length_c                    16.6814
_cell_angle_alpha                 90.0000
_cell_angle_beta                  90.0000
_cell_angle_gamma                 90.0000
loop_
_atom_site_label
_atom_site_type_symbol
_atom_site_fract_x
_atom_site_fract_y
_atom_site_fract_z
_atom_site_U_iso_or_equiv
_atom_site_adp_type
_atom_site_occupancy
C1     C     0.89035   0.82950   0.10959   0.00000  Uiso   1.00
C2     C     0.17271   0.82935   0.17272   0.00000  Uiso   1.00
C3     C     0.82772   0.15591   0.93407   0.00000  Uiso   1.00
C4     C     0.17228   0.15591   0.06593   0.00000  Uiso   1.00
C5     C     0.32764   0.82997   0.43416   0.00000  Uiso   1.00
C6     C     0.67236   0.82997   0.56584   0.00000  Uiso   1.00
C7     C     0.93409   0.15702   0.17236   0.00000  Uiso   1.00
C8     C     0.06591   0.15702   0.82764   0.00000  Uiso   1.00
C9     C     0.43396   0.83045   0.67228   0.00000  Uiso   1.00
C10    C     0.56604   0.83045   0.32772   0.00000  Uiso   1.00
C11    C     0.82778   0.15647   0.06597   0.00000  Uiso   1.00
C12    C     0.17222   0.15647   0.93403   0.00000  Uiso   1.00
C13    C     0.32762   0.82992   0.56588   0.00000  Uiso   1.00
C14    C     0.67238   0.82992   0.43412   0.00000  Uiso   1.00
C15    C     0.93413   0.15645   0.82758   0.00000  Uiso   1.00
C16    C     0.06587   0.15645   0.17242   0.00000  Uiso   1.00
C17    C     0.43400   0.83052   0.32774   0.00000  Uiso   1.00
C18    C     0.56600   0.83052   0.67226   0.00000  Uiso   1.00
C19    C     0.75550   0.83028   0.54093   0.00000  Uiso   1.00
C20    C     0.24450   0.83028   0.45907   0.00000  Uiso   1.00
C21    C     0.25532   0.15548   0.04092   0.00000  Uiso   1.00
C22    C     0.74468   0.15548   0.95908   0.00000  Uiso   1.00
C23    C     0.54100   0.83074   0.24473   0.00000  Uiso   1.00
C24    C     0.45900   0.83074   0.75527   0.00000  Uiso   1.00
C25    C     0.04100   0.15616   0.74455   0.00000  Uiso   1.00
C26    C     0.95900   0.15616   0.25545   0.00000  Uiso   1.00
C27    C     0.75551   0.83025   0.45905   0.00000  Uiso   1.00
C28    C     0.24449   0.83025   0.54095   0.00000  Uiso   1.00
C29    C     0.25526   0.15580   0.95898   0.00000  Uiso   1.00
C30    C     0.74474   0.15580   0.04102   0.00000  Uiso   1.00
C31    C     0.70899   0.82989   0.70887   0.00000  Uiso   1.00
C32    C     0.29101   0.82989   0.29113   0.00000  Uiso   1.00
C33    C     0.32720   0.15735   0.32726   0.00000  Uiso   1.00
C34    C     0.67280   0.15735   0.67274   0.00000  Uiso   1.00
C35    C     0.50000   0.66520   0.50000   0.00000  Uiso   1.00
C36    C     0.50000   0.35616   0.50000   0.00000  Uiso   1.00
C37    C     0.00000   0.63034  -0.00000   0.00000  Uiso   1.00
C38    C     0.00000   0.32129  -0.00000   0.00000  Uiso   1.00
C39    C     0.00598   0.69657   0.06917   0.00000  Uiso   1.00
C40    C     0.99402   0.69657   0.93083   0.00000  Uiso   1.00
C41    C     0.00639   0.65314   0.07163   0.00000  Uiso   1.00
C42    C     0.99361   0.65314   0.92837   0.00000  Uiso   1.00
C43    C     0.05019   0.29854   0.05157   0.00000  Uiso   1.00
C44    C     0.94981   0.29854   0.94843   0.00000  Uiso   1.00
C45    C     0.04835   0.25507   0.04933   0.00000  Uiso   1.00
C46    C     0.95165   0.25507   0.95067   0.00000  Uiso   1.00
C47    C     0.50234   0.73142   0.56905   0.00000  Uiso   1.00
C48    C     0.49766   0.73142   0.43095   0.00000  Uiso   1.00
C49    C     0.54099   0.83078   0.75526   0.00000  Uiso   1.00
C50    C     0.50278   0.68795   0.57189   0.00000  Uiso   1.00
C51    C     0.54744   0.33336   0.55403   0.00000  Uiso   1.00
C52    C     0.45256   0.33336   0.44597   0.00000  Uiso   1.00
C53    C     0.54598   0.28995   0.55205   0.00000  Uiso   1.00
C54    C     0.45402   0.28995   0.44795   0.00000  Uiso   1.00
C55    C     0.79099   0.15678   0.20904   0.00000  Uiso   1.00
C56    C     0.20901   0.15678   0.79096   0.00000  Uiso   1.00
C57    C     0.67262   0.15622   0.32753   0.00000  Uiso   1.00
C58    C     0.32738   0.15622   0.67247   0.00000  Uiso   1.00
C59    C     0.29095   0.82987   0.70893   0.00000  Uiso   1.00
C60    C     0.70905   0.82987   0.29107   0.00000  Uiso   1.00
C61    C     0.17267   0.82957   0.82738   0.00000  Uiso   1.00
C62    C     0.82733   0.82957   0.17262   0.00000  Uiso   1.00
C63    C     0.79112   0.15634   0.79108   0.00000  Uiso   1.00
C64    C     0.20888   0.15634   0.20892   0.00000  Uiso   1.00
C65    C     0.49722   0.68795   0.42811   0.00000  Uiso   1.00
C66    C     0.45901   0.83078   0.24474   0.00000  Uiso   1.00
C67    C     0.82729   0.82935   0.82728   0.00000  Uiso   1.00
C68    C     0.95910   0.15583   0.74448   0.00000  Uiso   1.00
C69    C     0.70169   0.11922   0.70192   0.00000  Uiso   1.00
C70    C     0.26084   0.86763   0.26100   0.00000  Uiso   1.00
C71    C     0.73916   0.86763   0.73900   0.00000  Uiso   1.00
C72    C     0.79723   0.79160   0.79746   0.00000  Uiso   1.00
C73    C     0.20277   0.79160   0.20254   0.00000  Uiso   1.00
C74    C     0.76200   0.19445   0.76167   0.00000  Uiso   1.00
C75    C     0.23800   0.19445   0.23833   0.00000  Uiso   1.00
C76    C     0.70246   0.11850   0.29739   0.00000  Uiso   1.00
C77    C     0.29754   0.11850   0.70261   0.00000  Uiso   1.00
C78    C     0.73907   0.86767   0.26107   0.00000  Uiso   1.00
C79    C     0.26093   0.86767   0.73893   0.00000  Uiso   1.00
C80    C     0.64617   0.83003   0.35401   0.00000  Uiso   1.00
C81    C     0.35383   0.83003   0.64599   0.00000  Uiso   1.00
C82    C     0.04090   0.15583   0.25552   0.00000  Uiso   1.00
C83    C     0.29831   0.11922   0.29808   0.00000  Uiso   1.00
C84    C     0.39033   0.15579   0.60931   0.00000  Uiso   1.00
C85    C     0.79747   0.79177   0.20234   0.00000  Uiso   1.00
C86    C     0.23909   0.19451   0.76066   0.00000  Uiso   1.00
C87    C     0.76091   0.19451   0.23934   0.00000  Uiso   1.00
C88    C     0.14598   0.15609   0.14607   0.00000  Uiso   1.00
C89    C     0.85402   0.15609   0.85393   0.00000  Uiso   1.00
C90    C     0.39020   0.15798   0.39025   0.00000  Uiso   1.00
C91    C     0.60980   0.15798   0.60975   0.00000  Uiso   1.00
C92    C     0.64611   0.83012   0.64594   0.00000  Uiso   1.00
C93    C     0.35389   0.83012   0.35406   0.00000  Uiso   1.00
C94    C     0.89040   0.82907   0.89022   0.00000  Uiso   1.00
C95    C     0.10960   0.82907   0.10978   0.00000  Uiso   1.00
C96    C     0.85397   0.15698   0.14612   0.00000  Uiso   1.00
C97    C     0.14603   0.15698   0.85388   0.00000  Uiso   1.00
C98    C     0.60967   0.15579   0.39069   0.00000  Uiso   1.00
C99    C     0.20253   0.79177   0.79766   0.00000  Uiso   1.00
C100   C     0.76057   0.11873   0.76083   0.00000  Uiso   1.00
C101   C     0.10965   0.82950   0.89041   0.00000  Uiso   1.00
C102   C     0.73844   0.79189   0.73848   0.00000  Uiso   1.00
C103   C     0.20203   0.86752   0.79781   0.00000  Uiso   1.00
C104   C     0.23943   0.11873   0.23917   0.00000  Uiso   1.00
C105   C     0.26156   0.79189   0.26152   0.00000  Uiso   1.00
C106   C     0.76132   0.11877   0.23846   0.00000  Uiso   1.00
C107   C     0.23868   0.11877   0.76154   0.00000  Uiso   1.00
C108   C     0.73868   0.79192   0.26135   0.00000  Uiso   1.00
C109   C     0.26132   0.79192   0.73865   0.00000  Uiso   1.00
C110   C     0.70200   0.19425   0.29828   0.00000  Uiso   1.00
C111   C     0.79797   0.86752   0.20219   0.00000  Uiso   1.00
C112   C     0.20192   0.86735   0.20213   0.00000  Uiso   1.00
C113   C     0.29800   0.19425   0.70172   0.00000  Uiso   1.00
C114   C     0.79808   0.86735   0.79787   0.00000  Uiso   1.00
C115   C     0.29683   0.19494   0.29718   0.00000  Uiso   1.00
C116   C     0.70317   0.19494   0.70282   0.00000  Uiso   1.00
H117   H     0.95264   0.95678   0.00029   0.00000  Uiso   1.00
H118   H     0.32020   0.22437   0.32083   0.00000  Uiso   1.00
H119   H     0.67980   0.22437   0.67917   0.00000  Uiso   1.00
H120   H     0.49921   0.92806   0.54672   0.00000  Uiso   1.00
H121   H     0.71577   0.89724   0.28458   0.00000  Uiso   1.00
H122   H     0.19301   0.83068   0.41883   0.00000  Uiso   1.00
H123   H     0.21636   0.08902   0.21601   0.00000  Uiso   1.00
H124   H     0.78364   0.08902   0.78399   0.00000  Uiso   1.00
H125   H     0.50079   0.92806   0.45328   0.00000  Uiso   1.00
H126   H     0.82256   0.89646   0.82197   0.00000  Uiso   1.00
H127   H     0.17744   0.89646   0.17803   0.00000  Uiso   1.00
H128   H     0.04736   0.95678   0.99971   0.00000  Uiso   1.00
H129   H     0.49649   0.67206   0.36997   0.00000  Uiso   1.00
H130   H     0.80701   0.83063   0.41881   0.00000  Uiso   1.00
H131   H     0.49638   0.75034   0.37616   0.00000  Uiso   1.00
H132   H     0.09181   0.31446   0.09213   0.00000  Uiso   1.00
H133   H     0.90819   0.31446   0.90787   0.00000  Uiso   1.00
H134   H     0.08708   0.23621   0.08820   0.00000  Uiso   1.00
H135   H     0.91292   0.23621   0.91180   0.00000  Uiso   1.00
H136   H     0.01033   0.71545   0.12375   0.00000  Uiso   1.00
H137   H     0.98967   0.71545   0.87625   0.00000  Uiso   1.00
H138   H     0.01010   0.63713   0.12951   0.00000  Uiso   1.00
H139   H     0.98990   0.63713   0.87049   0.00000  Uiso   1.00
H140   H     0.21497   0.08935   0.78536   0.00000  Uiso   1.00
H141   H     0.78503   0.08935   0.21464   0.00000  Uiso   1.00
H142   H     0.71509   0.76245   0.28512   0.00000  Uiso   1.00
H143   H     0.28491   0.76245   0.71488   0.00000  Uiso   1.00
H144   H     0.58674   0.34938   0.59666   0.00000  Uiso   1.00
H145   H     0.41326   0.34938   0.40334   0.00000  Uiso   1.00
H146   H     0.58251   0.27090   0.59255   0.00000  Uiso   1.00
H147   H     0.41749   0.27090   0.40745   0.00000  Uiso   1.00
H148   H     0.50362   0.75034   0.62384   0.00000  Uiso   1.00
H149   H     0.50351   0.67206   0.63003   0.00000  Uiso   1.00
H150   H     0.95329   0.05874   0.99925   0.00000  Uiso   1.00
H151   H     0.04671   0.05874   0.00075   0.00000  Uiso   1.00
H152   H     0.67784   0.22338   0.32259   0.00000  Uiso   1.00
H153   H     0.28423   0.89724   0.71542   0.00000  Uiso   1.00
H154   H     0.30687   0.15491   0.08110   0.00000  Uiso   1.00
H155   H     0.41879   0.83099   0.80680   0.00000  Uiso   1.00
H156   H     0.21573   0.22414   0.78391   0.00000  Uiso   1.00
H157   H     0.78427   0.22414   0.21609   0.00000  Uiso   1.00
H158   H     0.58121   0.83099   0.19320   0.00000  Uiso   1.00
H159   H     0.28531   0.76247   0.28539   0.00000  Uiso   1.00
H160   H     0.71469   0.76247   0.71461   0.00000  Uiso   1.00
H161   H     0.91872   0.15559   0.30691   0.00000  Uiso   1.00
H162   H     0.28404   0.89725   0.28441   0.00000  Uiso   1.00
H163   H     0.71596   0.89725   0.71559   0.00000  Uiso   1.00
H164   H     0.08128   0.15559   0.69309   0.00000  Uiso   1.00
H165   H     0.08108   0.15495   0.30705   0.00000  Uiso   1.00
H166   H     0.91892   0.15495   0.69295   0.00000  Uiso   1.00
H167   H     0.19299   0.83063   0.58119   0.00000  Uiso   1.00
H168   H     0.58120   0.83107   0.80679   0.00000  Uiso   1.00
H169   H     0.41880   0.83107   0.19321   0.00000  Uiso   1.00
H170   H     0.78605   0.22380   0.78550   0.00000  Uiso   1.00
H171   H     0.21395   0.22380   0.21450   0.00000  Uiso   1.00
H172   H     0.30674   0.15552   0.91872   0.00000  Uiso   1.00
H173   H     0.69326   0.15552   0.08128   0.00000  Uiso   1.00
H174   H     0.17926   0.76228   0.17846   0.00000  Uiso   1.00
H175   H     0.32216   0.22338   0.67741   0.00000  Uiso   1.00
H176   H     0.82074   0.76228   0.82154   0.00000  Uiso   1.00
H177   H     0.45263   0.02938   0.50024   0.00000  Uiso   1.00
H178   H     0.67705   0.09021   0.67760   0.00000  Uiso   1.00
H179   H     0.32295   0.09021   0.32240   0.00000  Uiso   1.00
H180   H     0.54737   0.02938   0.49976   0.00000  Uiso   1.00
H181   H     0.69313   0.15491   0.91890   0.00000  Uiso   1.00
H182   H     0.17886   0.76249   0.82177   0.00000  Uiso   1.00
H183   H     0.82114   0.76249   0.17823   0.00000  Uiso   1.00
H184   H     0.80699   0.83068   0.58117   0.00000  Uiso   1.00
H185   H     0.82233   0.89666   0.17818   0.00000  Uiso   1.00
H186   H     0.17767   0.89666   0.82182   0.00000  Uiso   1.00
H187   H     0.32148   0.08920   0.67894   0.00000  Uiso   1.00
H188   H     0.67852   0.08920   0.32106   0.00000  Uiso   1.00
N189   N     0.00000   0.23352  -0.00000   0.00000  Uiso   1.00
N190   N     0.00000   0.71810  -0.00000   0.00000  Uiso   1.00
N191   N     0.12325   0.15646   0.00001   0.00000  Uiso   1.00
N192   N     0.50000   0.26841   0.50000   0.00000  Uiso   1.00
N193   N     0.87675   0.15646   0.99999   0.00000  Uiso   1.00
N194   N     0.50000   0.75299   0.50000   0.00000  Uiso   1.00
N195   N     0.37659   0.82968   0.50002   0.00000  Uiso   1.00
N196   N     0.99998   0.15734   0.87657   0.00000  Uiso   1.00
N197   N     0.00002   0.15734   0.12343   0.00000  Uiso   1.00
N198   N     0.50002   0.83032   0.37676   0.00000  Uiso   1.00
N199   N     0.49998   0.83032   0.62324   0.00000  Uiso   1.00
N200   N     0.62341   0.82968   0.49998   0.00000  Uiso   1.00
O201   O     0.00000   0.93896  -0.00000   0.00000  Uiso   1.00
O202   O     0.50000   0.04720   0.50000   0.00000  Uiso   1.00
O203   O     0.91438   0.86514   0.08494   0.00000  Uiso   1.00
O204   O     0.41430   0.19379   0.41385   0.00000  Uiso   1.00
O205   O     0.50000   0.90974   0.50000   0.00000  Uiso   1.00
O206   O     0.91525   0.79340   0.91369   0.00000  Uiso   1.00
O207   O     0.08475   0.79340   0.08631   0.00000  Uiso   1.00
O208   O     0.41475   0.12256   0.41523   0.00000  Uiso   1.00
O209   O     0.58525   0.12256   0.58477   0.00000  Uiso   1.00
O210   O     0.91501   0.79390   0.08560   0.00000  Uiso   1.00
O211   O     0.58570   0.19379   0.58615   0.00000  Uiso   1.00
O212   O     0.41410   0.12001   0.58510   0.00000  Uiso   1.00
O213   O     0.08499   0.79390   0.91440   0.00000  Uiso   1.00
O214   O     0.08562   0.86514   0.91506   0.00000  Uiso   1.00
O215   O     0.41521   0.19123   0.58476   0.00000  Uiso   1.00
O216   O     0.58479   0.19123   0.41524   0.00000  Uiso   1.00
O217   O     0.91430   0.86464   0.91529   0.00000  Uiso   1.00
O218   O     0.08570   0.86464   0.08471   0.00000  Uiso   1.00
O219   O     0.58590   0.12001   0.41490   0.00000  Uiso   1.00
O220   O     0.00000   0.07705  -0.00000   0.00000  Uiso   1.00
Zn221  Zn    0.00000   0.16152  -0.00000   0.00000  Uiso   1.00
Zn222  Zn    0.00000   0.78304  -0.00000   0.00000  Uiso   1.00
Zn223  Zn    0.50000   0.20337   0.50000   0.00000  Uiso   1.00
Zn224  Zn    0.50000   0.11451   0.50000   0.00000  Uiso   1.00
Zn225  Zn    0.50000   0.82518   0.50000   0.00000  Uiso   1.00
Zn226  Zn    0.00000   0.87167  -0.00000   0.00000  Uiso   1.00
C227   C     0.60846   0.48851   0.39480   0.00000  Uiso   1.00
C228   C     0.60847   0.53230   0.39480   0.00000  Uiso   1.00
C229   C     0.55666   0.55429   0.44485   0.00000  Uiso   1.00
C230   C     0.55762   0.60049   0.44400   0.00000  Uiso   1.00
C231   C     0.55675   0.46652   0.44485   0.00000  Uiso   1.00
C232   C     0.44938   0.42067   0.55001   0.00000  Uiso   1.00
C233   C     0.45040   0.46668   0.54840   0.00000  Uiso   1.00
C234   C     0.39869   0.48857   0.59849   0.00000  Uiso   1.00
C235   C     0.39838   0.53227   0.59814   0.00000  Uiso   1.00
C236   C     0.45001   0.55413   0.54781   0.00000  Uiso   1.00
C237   C     0.44861   0.60021   0.54914   0.00000  Uiso   1.00
C238   C     0.55750   0.42041   0.44385   0.00000  Uiso   1.00
C239   C     0.50354   0.48812   0.49648   0.00000  Uiso   1.00
C240   C     0.50341   0.53263   0.49632   0.00000  Uiso   1.00
H241   H     0.35807   0.55004   0.63704   0.00000  Uiso   1.00
H242   H     0.35874   0.47076   0.63766   0.00000  Uiso   1.00
H243   H     0.64884   0.47085   0.35577   0.00000  Uiso   1.00
H244   H     0.64894   0.54986   0.35569   0.00000  Uiso   1.00
N245   N     0.50321   0.40102   0.49704   0.00000  Uiso   1.00
N246   N     0.50287   0.62036   0.49665   0.00000  Uiso   1.00
O247   O     0.60149   0.39933   0.40054   0.00000  Uiso   1.00
O248   O     0.60235   0.62110   0.40063   0.00000  Uiso   1.00
O249   O     0.40528   0.39990   0.59385   0.00000  Uiso   1.00
O250   O     0.40383   0.62047   0.59312   0.00000  Uiso   1.00
C251   C     1.10795   0.45358   0.89361   0.00000  Uiso   1.00
C252   C     1.10796   0.49737   0.89361   0.00000  Uiso   1.00
C253   C     1.05615   0.51936   0.94366   0.00000  Uiso   1.00
C254   C     1.05711   0.56556   0.94281   0.00000  Uiso   1.00
C255   C     1.05624   0.43159   0.94366   0.00000  Uiso   1.00
C256   C     0.94887   0.38574   1.04882   0.00000  Uiso   1.00
C257   C     0.94989   0.43175   1.04721   0.00000  Uiso   1.00
C258   C     0.89818   0.45364   1.09730   0.00000  Uiso   1.00
C259   C     0.89787   0.49734   1.09695   0.00000  Uiso   1.00
C260   C     0.94950   0.51920   1.04662   0.00000  Uiso   1.00
C261   C     0.94810   0.56528   1.04795   0.00000  Uiso   1.00
C262   C     1.05699   0.38548   0.94266   0.00000  Uiso   1.00
C263   C     1.00303   0.45319   0.99529   0.00000  Uiso   1.00
C264   C     1.00290   0.49770   0.99513   0.00000  Uiso   1.00
H265   H     0.85756   0.51511   1.13585   0.00000  Uiso   1.00
H266   H     0.85823   0.43583   1.13647   0.00000  Uiso   1.00
H267   H     1.14833   0.43592   0.85458   0.00000  Uiso   1.00
H268   H     1.14843   0.51493   0.85450   0.00000  Uiso   1.00
N269   N     1.00270   0.36609   0.99585   0.00000  Uiso   1.00
N270   N     1.00236   0.58543   0.99546   0.00000  Uiso   1.00
O271   O     1.10098   0.36440   0.89935   0.00000  Uiso   1.00
O272   O     1.10184   0.58617   0.89944   0.00000  Uiso   1.00
O273   O     0.90477   0.36497   1.09266   0.00000  Uiso   1.00
O274   O     0.90332   0.58554   1.09193   0.00000  Uiso   1.00
loop_
_geom_bond_atom_site_label_1
_geom_bond_atom_site_label_2
_geom_bond_distance
_geom_bond_site_symmetry_2
_ccdc_geom_bond_type
C1     C62     1.487   .     S
C1     O203    1.277   .     D
C1     O210    1.276   .     S
C2     C73     1.399   .     D
C2     C95     1.487   .     S
C2     C112    1.399   .     S
C3     C22     1.447   .     S
C3     C89     1.407   .     S
C3     N193    1.371   .     D
C4     C21     1.447   .     S
C4     C88     1.407   .     S
C4     N191    1.371   .     D
C5     C20     1.448   .     S
C5     C93     1.406   .     D
C5     N195    1.369   .     S
C6     C19     1.448   .     S
C6     C92     1.406   .     D
C6     N200    1.369   .     S
C7     C26     1.447   .     S
C7     C96     1.406   .     S
C7     N197    1.370   1_655 D
C8     C25     1.447   .     S
C8     C97     1.406   .     S
C8     N196    1.370   1_455 D
C9     C24     1.446   .     S
C9     C81     1.407   .     D
C9     N199    1.372   .     S
C10    C23     1.446   .     S
C10    C80     1.407   .     D
C10    N198    1.372   .     S
C11    C30     1.447   .     S
C11    C96     1.407   .     D
C11    N193    1.371   1_554 S
C12    C29     1.447   .     S
C12    C97     1.407   .     D
C12    N191    1.371   1_556 S
C13    C28     1.448   .     S
C13    C81     1.406   .     S
C13    N195    1.369   .     D
C14    C27     1.448   .     S
C14    C80     1.406   .     S
C14    N200    1.369   .     D
C15    C68     1.448   .     S
C15    C89     1.407   .     D
C15    N196    1.369   .     S
C16    C82     1.448   .     S
C16    C88     1.407   .     D
C16    N197    1.369   .     S
C17    C66     1.446   .     S
C17    C93     1.407   .     S
C17    N198    1.372   .     D
C18    C49     1.446   .     S
C18    C92     1.407   .     S
C18    N199    1.372   .     D
C19    C27     1.366   .     D
C19    H184    1.090   .     S
C20    C28     1.366   .     D
C20    H122    1.090   .     S
C21    C29     1.367   1_554 D
C21    H154    1.090   .     S
C22    C30     1.367   1_556 D
C22    H181    1.090   .     S
C23    C66     1.368   .     D
C23    H158    1.090   .     S
C24    C49     1.368   .     D
C24    H155    1.090   .     S
C25    C68     1.366   1_455 D
C25    H164    1.090   .     S
C26    C82     1.366   1_655 D
C26    H161    1.090   .     S
C27    H130    1.090   .     S
C28    H167    1.090   .     S
C29    C21     1.367   1_556 D
C29    H172    1.090   .     S
C30    C22     1.367   1_554 D
C30    H173    1.090   .     S
C31    C71     1.401   .     S
C31    C92     1.484   .     S
C31    C102    1.402   .     D
C32    C70     1.401   .     S
C32    C93     1.484   .     S
C32    C105    1.402   .     D
C33    C83     1.399   .     S
C33    C90     1.486   .     S
C33    C115    1.398   .     D
C34    C69     1.399   .     S
C34    C91     1.486   .     S
C34    C116    1.398   .     D
C35    C50     1.404   .     D
C35    C65     1.404   .     D
C36    C51     1.404   .     S
C36    C52     1.404   .     D
C37    C41     1.404   .     D
C37    C42     1.404   1_454 S
C38    C43     1.404   .     D
C38    C44     1.404   1_454 D
C39    C41     1.390   .     S
C39    H136    1.095   .     S
C39    N190    1.348   .     D
C40    C42     1.390   .     D
C40    H137    1.095   .     S
C40    N190    1.348   1_656 S
C41    H138    1.095   .     S
C42    C37     1.404   1_656 S
C42    H139    1.095   .     S
C43    C45     1.392   .     S
C43    H132    1.095   .     S
C44    C38     1.404   1_656 D
C44    C46     1.392   .     S
C44    H133    1.095   .     S
C45    H134    1.096   .     S
C45    N189    1.343   .     D
C46    H135    1.096   .     S
C46    N189    1.343   1_656 D
C47    C50     1.392   .     S
C47    H148    1.097   .     S
C47    N194    1.343   .     D
C48    C65     1.392   .     S
C48    H131    1.097   .     S
C48    N194    1.343   .     D
C49    H168    1.090   .     S
C50    H149    1.095   .     S
C51    C53     1.390   .     D
C51    H144    1.095   .     S
C52    C54     1.390   .     S
C52    H145    1.095   .     S
C53    H146    1.095   .     S
C53    N192    1.348   .     S
C54    H147    1.095   .     S
C54    N192    1.348   .     D
C55    C87     1.402   .     S
C55    C96     1.485   .     S
C55    C106    1.402   .     D
C56    C86     1.402   .     S
C56    C97     1.485   .     S
C56    C107    1.402   .     D
C57    C76     1.399   .     D
C57    C98     1.488   .     S
C57    C110    1.400   .     S
C58    C77     1.399   .     D
C58    C84     1.488   .     S
C58    C113    1.400   .     S
C59    C79     1.401   .     D
C59    C81     1.484   .     S
C59    C109    1.402   .     S
C60    C78     1.401   .     D
C60    C80     1.484   .     S
C60    C108    1.402   .     S
C61    C99     1.399   .     S
C61    C101    1.487   .     S
C61    C103    1.399   .     D
C62    C85     1.399   .     S
C62    C111    1.399   .     D
C63    C74     1.401   .     D
C63    C89     1.483   .     S
C63    C100    1.401   .     S
C64    C75     1.401   .     D
C64    C88     1.483   .     S
C64    C104    1.401   .     S
C65    H129    1.095   .     S
C66    H169    1.090   .     S
C67    C72     1.399   .     D
C67    C94     1.487   .     S
C67    C114    1.399   .     S
C68    C25     1.366   1_655 D
C68    H166    1.090   .     S
C69    C100    1.389   .     D
C69    H178    1.093   .     S
C70    C112    1.389   .     D
C70    H162    1.096   .     S
C71    C114    1.389   .     D
C71    H163    1.096   .     S
C72    C102    1.389   .     S
C72    H176    1.093   .     S
C73    C105    1.389   .     S
C73    H174    1.093   .     S
C74    C116    1.388   .     S
C74    H170    1.096   .     S
C75    C115    1.388   .     S
C75    H171    1.096   .     S
C76    C106    1.389   .     S
C76    H188    1.093   .     S
C77    C107    1.389   .     S
C77    H187    1.093   .     S
C78    C111    1.389   .     S
C78    H121    1.096   .     S
C79    C103    1.389   .     S
C79    H153    1.096   .     S
C82    C26     1.366   1_455 D
C82    H165    1.090   .     S
C83    C104    1.389   .     D
C83    H179    1.093   .     S
C84    O212    1.277   .     D
C84    O215    1.275   .     S
C85    C108    1.390   .     D
C85    H183    1.093   .     S
C86    C113    1.390   .     D
C86    H156    1.096   .     S
C87    C110    1.390   .     D
C87    H157    1.096   .     S
C90    O204    1.277   .     D
C90    O208    1.275   .     S
C91    O209    1.275   .     D
C91    O211    1.277   .     S
C94    O206    1.276   .     D
C94    O217    1.276   .     S
C95    O207    1.276   .     S
C95    O218    1.276   .     D
C98    O216    1.275   .     S
C98    O219    1.277   .     D
C99    C109    1.390   .     D
C99    H182    1.093   .     S
C100   H124    1.096   .     S
C101   O213    1.276   .     D
C101   O214    1.277   .     S
C102   H160    1.096   .     S
C103   H186    1.093   .     S
C104   H123    1.096   .     S
C105   H159    1.096   .     S
C106   H141    1.096   .     S
C107   H140    1.096   .     S
C108   H142    1.096   .     S
C109   H143    1.096   .     S
C110   H152    1.093   .     S
C111   H185    1.093   .     S
C112   H127    1.093   .     S
C113   H175    1.093   .     S
C114   H126    1.093   .     S
C115   H118    1.093   .     S
C116   H119    1.093   .     S
H117   O201    0.974   1_655 S
H120   O205    0.975   .     S
H125   O205    0.975   .     S
H128   O201    0.974   1_556 S
H150   O220    0.975   1_656 S
H151   O220    0.975   .     S
H177   O202    0.974   .     S
H180   O202    0.974   .     S
N189   C46     1.343   1_454 D
N190   C40     1.348   1_454 S
N190   Zn222   2.078   .     S
N191   C12     1.371   1_554 S
N191   Zn221   2.062   .     S
N192   Zn223   2.081   .     S
N193   C11     1.371   1_556 S
N193   Zn221   2.062   1_656 S
N195   Zn225   2.064   .     S
N196   C8      1.370   1_655 D
N196   Zn221   2.063   1_656 S
N197   C7      1.370   1_455 D
N197   Zn221   2.063   .     S
N198   Zn225   2.062   .     S
N199   Zn225   2.062   .     S
N200   Zn225   2.064   .     S
O201   H117    0.974   1_455 S
O201   H128    0.974   1_554 S
O201   Zn226   2.154   .     S
O202   Zn224   2.154   .     S
O203   Zn226   2.023   1_655 S
O204   Zn223   2.050   .     S
O206   Zn222   2.045   1_656 S
O207   Zn222   2.045   .     S
O208   Zn224   2.022   .     S
O209   Zn224   2.022   .     S
O210   Zn222   2.042   1_655 S
O211   Zn223   2.050   .     S
O212   Zn224   2.025   .     S
O213   Zn222   2.042   1_556 S
O214   Zn226   2.023   1_556 S
O215   Zn223   2.037   .     S
O216   Zn223   2.037   .     S
O217   Zn226   2.023   1_656 S
O218   Zn226   2.023   .     S
O219   Zn224   2.025   .     S
O220   H150    0.975   1_454 S
Zn221  N193    2.062   1_454 S
Zn221  N196    2.063   1_454 S
Zn222  O210    2.042   1_455 S
Zn222  O213    2.042   1_554 S
Zn222  O206    2.045   1_454 S
Zn226  O203    2.023   1_455 S
Zn226  O214    2.023   1_554 S
Zn226  O217    2.023   1_454 S
C227   C228    1.401   .     D
C227   C231    1.392   .     S
C227   H243    1.094   .     S
C228   C229    1.393   .     S
C228   H244    1.094   .     S
C229   C230    1.479   .     S
C229   C240    1.417   .     D
C230   N246    1.418   .     S
C230   O248    1.231   .     D
C231   C238    1.476   .     S
C231   C239    1.417   .     D
C232   C233    1.473   .     S
C232   N245    1.408   .     S
C232   O249    1.232   .     D
C233   C234    1.390   .     D
C233   C239    1.417   .     S
C234   C235    1.398   .     S
C234   H242    1.094   .     S
C235   C236    1.391   .     D
C235   H241    1.094   .     S
C236   C237    1.475   .     S
C236   C240    1.416   .     S
C237   N246    1.415   .     S
C237   O250    1.231   .     D
C238   N245    1.412   .     S
C238   O247    1.231   .     D
C239   C240    1.424   .     S
C251   C252    1.401   .     D
C251   C255    1.392   .     S
C251   H267    1.094   .     S
C252   C253    1.393   .     S
C252   H268    1.094   .     S
C253   C254    1.479   .     S
C253   C264    1.417   .     D
C254   N270    1.418   .     S
C254   O272    1.231   .     D
C255   C262    1.476   .     S
C255   C263    1.417   .     D
C256   C257    1.473   .     S
C256   N269    1.408   .     S
C256   O273    1.232   .     D
C257   C258    1.390   .     D
C257   C263    1.417   .     S
C258   C259    1.398   .     S
C258   H266    1.094   .     S
C259   C260    1.391   .     D
C259   H265    1.094   .     S
C260   C261    1.475   .     S
C260   C264    1.416   .     S
C261   N270    1.415   .     S
C261   O274    1.231   .     D
C262   N269    1.412   .     S
C262   O271    1.231   .     D
C263   C264    1.424   .     S
