data_PPF-4
_audit_creation_date              2015-11-10
_audit_creation_method            'Materials Studio'
_symmetry_space_group_name_H-M    'C2'
_symmetry_Int_Tables_number       5
_symmetry_cell_setting            monoclinic
loop_
_symmetry_equiv_pos_as_xyz
  x,y,z
  -x,y,-z
  x+1/2,y+1/2,z
  -x+1/2,y+1/2,-z
_cell_length_a                    23.6346
_cell_length_b                    54.2436
_cell_length_c                    16.7122
_cell_angle_alpha                 90.0000
_cell_angle_beta                  135.0000
_cell_angle_gamma                 90.0000
loop_
_atom_site_label
_atom_site_type_symbol
_atom_site_fract_x
_atom_site_fract_y
_atom_site_fract_z
_atom_site_U_iso_or_equiv
_atom_site_adp_type
_atom_site_occupancy
C1     C    -0.10843   0.32730   0.78314   0.00000  Uiso   1.00
C2     C    -0.35292   0.32730   0.29416   0.00000  Uiso   1.00
C3     C    -0.60847   0.09196  -0.21694   0.00000  Uiso   1.00
C4     C    -0.85292   0.09196  -0.70584   0.00000  Uiso   1.00
C5     C    -0.10843   0.32730  -0.00000   0.00000  Uiso   1.00
C6     C    -0.35292   0.32730  -0.00000   0.00000  Uiso   1.00
C7     C    -0.60847   0.09196  -0.00000   0.00000  Uiso   1.00
C8     C    -0.85292   0.09196  -0.00000   0.00000  Uiso   1.00
C9     C    -0.23986   0.11427   0.52028   0.00000  Uiso   1.00
C10    C    -0.20063   0.30496   0.59874   0.00000  Uiso   1.00
H11    H    -0.28468   0.36655   0.43064   0.00000  Uiso   1.00
C12    C    -0.73989   0.34961  -0.47978   0.00000  Uiso   1.00
C13    C    -0.70066   0.06962  -0.40132   0.00000  Uiso   1.00
H14    H    -0.78465   0.13123  -0.56930   0.00000  Uiso   1.00
C15    C    -0.23986   0.11427  -0.00000   0.00000  Uiso   1.00
C16    C    -0.20063   0.30496  -0.00000   0.00000  Uiso   1.00
H17    H    -0.28468   0.36655  -0.00000   0.00000  Uiso   1.00
C18    C    -0.73989   0.34961  -0.00000   0.00000  Uiso   1.00
C19    C    -0.70066   0.06962  -0.00000   0.00000  Uiso   1.00
H20    H    -0.78465   0.13123  -0.00000   0.00000  Uiso   1.00
C21    C    -0.76014   0.06966  -0.00000   0.00000  Uiso   1.00
C22    C    -0.79937   0.34964  -0.00000   0.00000  Uiso   1.00
H23    H    -0.71532   0.28803  -0.00000   0.00000  Uiso   1.00
C24    C    -0.26011   0.30499   0.00000   0.00000  Uiso   1.00
C25    C    -0.29934   0.11431  -0.00000   0.00000  Uiso   1.00
H26    H    -0.21535   0.05270  -0.00000   0.00000  Uiso   1.00
C27    C    -0.76014   0.06966  -0.52028   0.00000  Uiso   1.00
C28    C    -0.79937   0.34964  -0.59874   0.00000  Uiso   1.00
H29    H    -0.71532   0.28803  -0.43064   0.00000  Uiso   1.00
C30    C    -0.26011   0.30499   0.47978   0.00000  Uiso   1.00
C31    C    -0.29934   0.11431   0.40132   0.00000  Uiso   1.00
H32    H    -0.21535   0.05270   0.56930   0.00000  Uiso   1.00
C33    C    -0.74226   0.09196   0.21627   0.00000  Uiso   1.00
C34    C    -0.24229   0.32730   0.21620   0.00000  Uiso   1.00
C35    C    -0.04147   0.09196   0.70079   0.00000  Uiso   1.00
C36    C    -0.54151   0.32730  -0.29922   0.00000  Uiso   1.00
C37    C    -0.25774   0.09196   0.70079   0.00000  Uiso   1.00
C38    C    -0.75771   0.32730  -0.29922   0.00000  Uiso   1.00
C39    C    -0.95853   0.09196  -0.21627   0.00000  Uiso   1.00
C40    C    -0.45849   0.32730  -0.21620   0.00000  Uiso   1.00
C41    C    -0.67366   0.32730  -0.10710   0.00000  Uiso   1.00
H42    H    -0.41775   0.32730  -0.22770   0.00000  Uiso   1.00
C43    C    -0.17369   0.09196  -0.10710   0.00000  Uiso   1.00
H44    H    -0.91778   0.09196  -0.22770   0.00000  Uiso   1.00
C45    C    -0.43344   0.32730   0.24022   0.00000  Uiso   1.00
H46    H    -0.80995   0.32730  -0.39220   0.00000  Uiso   1.00
C47    C    -0.93341   0.09196  -0.75972   0.00000  Uiso   1.00
H48    H    -0.30992   0.09196   0.60786   0.00000  Uiso   1.00
C49    C    -0.32634   0.32730   0.24022   0.00000  Uiso   1.00
H50    H    -0.58225   0.32730  -0.39220   0.00000  Uiso   1.00
C51    C    -0.82631   0.09196  -0.75972   0.00000  Uiso   1.00
H52    H    -0.08222   0.09196   0.60786   0.00000  Uiso   1.00
C53    C    -0.56656   0.32730   0.10710   0.00000  Uiso   1.00
H54    H    -0.19005   0.32730   0.22770   0.00000  Uiso   1.00
C55    C    -0.06659   0.09196   0.10710   0.00000  Uiso   1.00
H56    H    -0.69008   0.09196   0.22770   0.00000  Uiso   1.00
C57    C    -0.82859   0.32730  -0.00000   0.00000  Uiso   1.00
C58    C    -0.71027   0.32730  -0.00000   0.00000  Uiso   1.00
C59    C    -0.32859   0.09196  -0.00000   0.00000  Uiso   1.00
C60    C    -0.21030   0.09196  -0.00000   0.00000  Uiso   1.00
C61    C    -0.17141   0.32730   0.65718   0.00000  Uiso   1.00
C62    C    -0.28973   0.32730   0.42054   0.00000  Uiso   1.00
C63    C    -0.67141   0.09196  -0.34282   0.00000  Uiso   1.00
C64    C    -0.78970   0.09196  -0.57940   0.00000  Uiso   1.00
H65    H    -0.17484   0.28820  -0.00000   0.00000  Uiso   1.00
O66    O    -0.91583   0.30621  -0.00000   0.00000  Uiso   1.00
H67    H    -0.67485   0.05286  -0.00000   0.00000  Uiso   1.00
O68    O    -0.41583   0.07089  -0.00000   0.00000  Uiso   1.00
H69    H    -0.82516   0.28820  -0.65032   0.00000  Uiso   1.00
O70    O    -0.08417   0.30621   0.83166   0.00000  Uiso   1.00
H71    H    -0.32512   0.05286   0.34973   0.00000  Uiso   1.00
O72    O    -0.58417   0.07089  -0.16834   0.00000  Uiso   1.00
H73    H    -0.82516   0.36638  -0.65032   0.00000  Uiso   1.00
O74    O    -0.08417   0.34837   0.83166   0.00000  Uiso   1.00
H75    H    -0.32515   0.13106   0.34970   0.00000  Uiso   1.00
O76    O    -0.58417   0.11303  -0.16834   0.00000  Uiso   1.00
H77    H    -0.17484   0.36638  -0.00000   0.00000  Uiso   1.00
O78    O    -0.91583   0.34837  -0.00000   0.00000  Uiso   1.00
H79    H    -0.67485   0.13106  -0.00000   0.00000  Uiso   1.00
O80    O    -0.41583   0.11303  -0.00000   0.00000  Uiso   1.00
N81    N    -0.00000   0.09196   0.12358   0.00000  Uiso   1.00
N82    N    -0.50000   0.32730   0.12358   0.00000  Uiso   1.00
N83    N    -0.87642   0.09196  -0.87642   0.00000  Uiso   1.00
N84    N    -0.37642   0.32730   0.12358   0.00000  Uiso   1.00
C85    C    -0.44825   0.16750   0.00513   0.00000  Uiso   1.00
C86    C    -0.44581   0.19321   0.00617   0.00000  Uiso   1.00
C87    C    -0.42757   0.24832   0.06998   0.00000  Uiso   1.00
C88    C    -0.43017   0.27401   0.06810   0.00000  Uiso   1.00
H89    H    -0.36830   0.23910   0.12873   0.00000  Uiso   1.00
H90    H    -0.37419   0.28493   0.12340   0.00000  Uiso   1.00
H91    H    -0.40710   0.15656   0.00826   0.00000  Uiso   1.00
H92    H    -0.40247   0.20239   0.00902   0.00000  Uiso   1.00
C185   C    -0.05051   0.40552  -0.00257   0.00000  Uiso   1.00
C186   C    -0.05291   0.43123  -0.00352   0.00000  Uiso   1.00
C187   C    -0.07230   0.48634  -0.06798   0.00000  Uiso   1.00
C188   C    -0.06975   0.51203  -0.06617   0.00000  Uiso   1.00
H189   H    -0.13151   0.47712  -0.12508   0.00000  Uiso   1.00
H190   H    -0.12566   0.52295  -0.11998   0.00000  Uiso   1.00
H191   H    -0.09063   0.39458  -0.00361   0.00000  Uiso   1.00
H192   H    -0.09517   0.44041  -0.00418   0.00000  Uiso   1.00
C235   C    -0.04927   0.14566  -0.00000   0.00000  Uiso   1.00
C236   C    -0.05163   0.17138  -0.00087   0.00000  Uiso   1.00
C237   C    -0.07217   0.22648  -0.06597   0.00000  Uiso   1.00
C238   C    -0.06966   0.25218  -0.06424   0.00000  Uiso   1.00
H239   H    -0.13132   0.21727  -0.12143   0.00000  Uiso   1.00
H240   H    -0.12552   0.26310  -0.11656   0.00000  Uiso   1.00
H241   H    -0.08837   0.13473   0.00104   0.00000  Uiso   1.00
H242   H    -0.09280   0.18056   0.00067   0.00000  Uiso   1.00
C201   C     0.00000   0.44508   0.00000   0.00000  Uiso   1.00
C202   C     0.00000   0.47251   0.00000   0.00000  Uiso   1.00
N203   N     0.00000   0.39235   0.00000   0.00000  Uiso   1.00
N204   N     0.00000   0.52516   0.00000   0.00000  Uiso   1.00
Zn442  Zn    0.00000   0.61654   0.00000   0.00000  Uiso   1.00
Zn443  Zn    0.00000   0.56739   0.00000   0.00000  Uiso   1.00
Zn444  Zn    0.00000   0.82730   0.00000   0.00000  Uiso   1.00
C445   C     0.00000   0.70706   0.00000   0.00000  Uiso   1.00
C446   C     0.00000   0.73449   0.00000   0.00000  Uiso   1.00
N447   N     0.00000   0.65433   0.00000   0.00000  Uiso   1.00
N448   N     0.00000   0.78714  -0.00000   0.00000  Uiso   1.00
Zn205  Zn    0.00000   0.35187   0.00000   0.00000  Uiso   1.00
Zn206  Zn   -0.00000   0.30273   0.00000   0.00000  Uiso   1.00
Zn207  Zn    0.00000   0.09196   0.00000   0.00000  Uiso   1.00
C251   C     0.00000   0.18523   0.00000   0.00000  Uiso   1.00
C252   C     0.00000   0.21266   0.00000   0.00000  Uiso   1.00
N253   N     0.00000   0.13250   0.00000   0.00000  Uiso   1.00
N254   N     0.00000   0.26531   0.00000   0.00000  Uiso   1.00
loop_
_geom_bond_atom_site_label_1
_geom_bond_atom_site_label_2
_geom_bond_distance
_geom_bond_site_symmetry_2
_ccdc_geom_bond_type
C1     C61     1.489   .     S
C1     O70     1.280   .     D
C1     O74     1.279   .     S
C2     C45     1.417   .     S
C2     C49     1.417   .     D
C2     C62     1.493   .     S
C3     C63     1.488   .     S
C3     O76     1.279   .     D
C3     O72     1.279   .     S
C4     C47     1.417   .     S
C4     C51     1.417   .     D
C4     C64     1.494   .     S
C5     C57     1.489   2_455 S
C5     O66     1.280   2_455 D
C5     O78     1.279   2_455 S
C6     C41     1.417   2_455 S
C6     C53     1.417   2_455 D
C6     C58     1.493   2_455 S
C7     C59     1.488   2_455 S
C7     O80     1.279   2_455 D
C7     O68     1.279   2_455 S
C8     C43     1.417   2_455 S
C8     C55     1.417   2_455 D
C8     C60     1.494   2_455 S
C9     C31     1.406   .     S
C9     H14     1.087   2_455 S
C9     C64     1.397   2_455 S
C10    C30     1.406   .     S
C10    C61     1.395   .     D
C10    H69     1.095   2_455 D
H11    C12     1.087   2_455 S
C12    C28     1.406   .     S
C12    H11     1.087   2_455 S
C12    C62     1.398   2_455 D
C13    C27     1.406   .     S
C13    C63     1.395   .     D
C13    H71     1.095   2_455 S
H14    C9      1.087   2_455 S
C15    C25     1.406   .     S
C15    C60     1.397   .     D
C15    H20     1.087   2_455 S
C16    C24     1.406   .     S
C16    H65     1.095   .     S
C16    C57     1.395   2_455 S
H17    C18     1.087   2_455 S
C18    C22     1.406   .     S
C18    C58     1.398   .     D
C18    H17     1.087   2_455 S
C19    C21     1.406   .     S
C19    H67     1.095   .     S
C19    C59     1.395   2_455 S
H20    C15     1.087   2_455 S
C21    H26     1.087   2_455 D
C21    C60     1.397   2_455 D
C22    C57     1.395   .     D
C22    H77     1.094   2_455 D
H23    C24     1.088   2_455 S
C24    H23     1.088   2_455 S
C24    C58     1.398   2_455 S
C25    C59     1.396   .     D
C25    H79     1.094   2_455 S
H26    C21     1.087   2_455 D
C27    C64     1.397   .     D
C27    H32     1.087   2_455 S
C28    H73     1.094   .     S
C28    C61     1.395   2_455 D
H29    C30     1.088   2_455 S
C30    C62     1.398   .     D
C30    H29     1.088   2_455 S
C31    H75     1.094   .     S
C31    C63     1.396   2_455 S
H32    C27     1.087   2_455 S
C33    H56     1.106   .     S
C33    C43     1.466   2_455 S
C33    C37     1.386   2_456 D
C34    H54     1.107   .     S
C34    C38     1.387   2_455 S
C34    C41     1.466   2_455 S
C35    H52     1.106   .     S
C35    C47     1.466   2_455 S
C35    C39     1.386   1_656 S
C36    C40     1.387   .     D
C36    H50     1.107   .     S
C36    C45     1.466   2_455 S
C37    H48     1.106   .     S
C37    C33     1.386   2_456 D
C37    C51     1.466   2_455 S
C38    H46     1.107   .     S
C38    C34     1.387   2_455 S
C38    C49     1.466   2_455 S
C39    H44     1.106   .     S
C39    C35     1.386   1_454 S
C39    C55     1.466   2_455 S
C40    H42     1.107   .     S
C40    C53     1.466   2_455 S
C41    C6      1.417   2_455 S
C41    C34     1.466   2_455 S
C41    N84     1.392   2_455 S
C43    C8      1.417   2_455 S
C43    C33     1.466   2_455 S
C43    N83     1.393   2_454 S
C45    N82     1.392   .     D
C45    C36     1.466   2_455 S
C47    C35     1.466   2_455 S
C47    N81     1.393   1_454 D
C49    N84     1.392   .     S
C49    C38     1.466   2_455 S
C51    N83     1.393   .     S
C51    C37     1.466   2_455 S
C53    N82     1.392   .     S
C53    C6      1.417   2_455 D
C53    C40     1.466   2_455 S
C55    N81     1.393   .     S
C55    C8      1.417   2_455 D
C55    C39     1.466   2_455 S
C57    C5      1.489   2_455 S
C57    C16     1.395   2_455 S
C58    C6      1.493   2_455 S
C58    C24     1.398   2_455 S
C59    C7      1.488   2_455 S
C59    C19     1.395   2_455 S
C60    C8      1.494   2_455 S
C60    C21     1.397   2_455 D
C61    C28     1.395   2_455 D
C62    C12     1.398   2_455 D
C63    C31     1.396   2_455 S
C64    C9      1.397   2_455 S
O66    C5      1.280   2_455 D
O66    Zn206   1.998   1_455 D
O68    Zn443   1.998   3_445 S
O68    C7      1.279   2_455 S
H69    C10     1.095   2_455 D
O70    Zn206   1.998   1_556 D
H71    C13     1.095   2_455 S
O72    Zn443   1.998   3_445 S
O74    Zn205   1.998   1_556 D
O76    Zn442   1.998   3_445 S
H77    C22     1.094   2_455 D
O78    C5      1.279   2_455 S
O78    Zn205   1.998   1_455 S
H79    C25     1.094   2_455 S
O80    Zn442   1.998   3_445 S
O80    C7      1.279   2_455 D
N81    Zn207   2.065   .     S
N81    C47     1.393   1_656 D
N82    Zn444   2.065   3_445 S
N83    C43     1.393   2_454 S
N83    Zn207   2.065   1_454 S
N84    Zn444   2.065   3_445 S
N84    C41     1.392   2_455 S
C85    C86     1.395   .     S
C85    H91     1.109   .     S
C85    N447    1.366   3_445 D
C86    H92     1.109   .     S
C86    C445    1.424   3_445 D
C87    C88     1.394   .     S
C87    H89     1.110   .     S
C87    C446    1.425   3_445 D
C88    H90     1.107   .     S
C88    N448    1.367   3_445 D
C185   C186    1.396   .     S
C185   H191    1.108   .     S
C185   N203    1.365   .     D
C186   H192    1.109   .     S
C186   C201    1.424   .     D
C187   C188    1.394   .     D
C187   H189    1.109   .     S
C187   C202    1.424   .     S
C188   H190    1.107   .     S
C188   N204    1.367   .     S
C235   C236    1.396   .     S
C235   H241    1.108   .     S
C235   N253    1.366   .     D
C236   H242    1.109   .     S
C236   C251    1.424   .     D
C237   C238    1.395   .     D
C237   H239    1.109   .     S
C237   C252    1.424   .     S
C238   H240    1.107   .     S
C238   N254    1.368   .     S
C201   C186    1.424   2     D
C201   C202    1.488   .     S
C202   C187    1.424   2     S
N203   C185    1.365   2     D
N203   Zn205   2.196   .     S
N204   C188    1.367   2     S
Zn442  O76     1.998   3     S
Zn442  O76     1.998   4_455 S
Zn442  O80     1.998   3     S
Zn442  O80     1.998   4_455 S
Zn442  Zn443   2.666   .     S
Zn442  N447    2.050   .     S
Zn443  O68     1.998   3     S
Zn443  O68     1.998   4_455 S
Zn443  O72     1.998   3     S
Zn443  O72     1.998   4_455 S
Zn444  N82     2.065   3     S
Zn444  N82     2.065   4_455 S
Zn444  N84     2.065   3     S
Zn444  N84     2.065   4_455 S
Zn444  N448    2.178   .     S
C445   C86     1.424   3     D
C445   C86     1.424   4_455 D
C445   C446    1.488   .     S
C446   C87     1.425   3     D
C446   C87     1.425   4_455 D
N447   C85     1.366   3     D
N447   C85     1.366   4_455 D
N448   C88     1.367   3     D
N448   C88     1.367   4_455 D
Zn205  Zn206   2.666   .     S
Zn205  O74     1.998   1_554 D
Zn205  O74     1.998   2_556 D
Zn205  O78     1.998   1_655 S
Zn205  O78     1.998   2_455 S
Zn206  O66     1.998   1_655 D
Zn206  O66     1.998   2_455 D
Zn206  O70     1.998   1_554 D
Zn206  O70     1.998   2_556 D
Zn206  N254    2.030   .     S
Zn207  N81     2.065   2     S
Zn207  N83     2.065   1_656 S
Zn207  N83     2.065   2_454 S
Zn207  N253    2.199   .     S
C251   C236    1.424   2     D
C251   C252    1.488   .     S
C252   C237    1.424   2     S
N253   C235    1.366   2     D
N254   C238    1.368   2     S
