data_PPF-5
_audit_creation_date              2016-03-16
_audit_creation_method            'Materials Studio'
_symmetry_space_group_name_H-M    'C222'
_symmetry_Int_Tables_number       21
_symmetry_cell_setting            orthorhombic
loop_
_symmetry_equiv_pos_as_xyz
  x,y,z
  -x,-y,z
  -x,y,-z
  x,-y,-z
  x+1/2,y+1/2,z
  -x+1/2,-y+1/2,z
  -x+1/2,y+1/2,-z
  x+1/2,-y+1/2,-z
_cell_length_a                    23.6348
_cell_length_b                    23.6348
_cell_length_c                    13.9165
_cell_angle_alpha                 90.0000
_cell_angle_beta                  90.0000
_cell_angle_gamma                 90.0000
loop_
_atom_site_label
_atom_site_type_symbol
_atom_site_fract_x
_atom_site_fract_y
_atom_site_fract_z
_atom_site_U_iso_or_equiv
_atom_site_adp_type
_atom_site_occupancy
C1     C     0.48050   0.45680   0.20360   0.00000  Uiso   1.00
H2     H     0.46665   0.42555   0.23650   0.00000  Uiso   1.00
C3     C     0.47965   0.45575   0.10430   0.00000  Uiso   1.00
H4     H     0.46500   0.42440   0.07250   0.00000  Uiso   1.00
O5     O     0.91453  -0.00000   0.42022   0.00000  Uiso   1.00
C6     C     0.73863   0.00000   0.58345   0.00000  Uiso   1.00
H7     H     0.71940   0.00000   0.64180   0.00000  Uiso   1.00
C8     C     0.79703   0.00000   0.58334   0.00000  Uiso   1.00
H9     H     0.81640  -0.00000   0.64150   0.00000  Uiso   1.00
O10    O     0.50000   0.41453   0.42022   0.00000  Uiso   1.00
C11    C     0.50000   0.23863   0.58345   0.00000  Uiso   1.00
H12    H     0.50000   0.21940   0.64180   0.00000  Uiso   1.00
C13    C     0.50000   0.29703   0.58334   0.00000  Uiso   1.00
H14    H     0.50000   0.31640   0.64150   0.00000  Uiso   1.00
N15    N     0.56015   0.06015   0.50000   0.00000  Uiso   1.00
C16    C     0.61742   0.05187   0.50000   0.00000  Uiso   1.00
C17    C     0.64592   0.10587   0.50000   0.00000  Uiso   1.00
H18    H     0.68485   0.11175   0.50000   0.00000  Uiso   1.00
C19    C     0.44813   0.11742   0.50000   0.00000  Uiso   1.00
C20    C     0.39413   0.14592   0.50000   0.00000  Uiso   1.00
H21    H     0.38825   0.18485   0.50000   0.00000  Uiso   1.00
H22    H     0.53833   0.00078   0.72224   0.00000  Uiso   1.00
C23    C     0.64534  -0.00000   0.50000   0.00000  Uiso   1.00
C24    C     0.70858  -0.00000   0.50000   0.00000  Uiso   1.00
C25    C     0.82659  -0.00000   0.50000   0.00000  Uiso   1.00
C26    C     0.89052  -0.00000   0.50000   0.00000  Uiso   1.00
C27    C     0.50000   0.14534   0.50000   0.00000  Uiso   1.00
C28    C     0.50000   0.20858   0.50000   0.00000  Uiso   1.00
C29    C     0.50000   0.32659   0.50000   0.00000  Uiso   1.00
C30    C     0.50000   0.39052   0.50000   0.00000  Uiso   1.00
Zn31   Zn    0.50000   0.00000   0.50000   0.00000  Uiso   1.00
O32    O     0.50000   0.00000   0.32374   0.00000  Uiso   1.00
Zn33   Zn    0.00000   0.00000   0.40200   0.00000  Uiso   1.00
N34    N     0.00000   0.00000   0.25413   0.00000  Uiso   1.00
C35    C     0.00000   0.00000   0.05290   0.00000  Uiso   1.00
loop_
_geom_bond_atom_site_label_1
_geom_bond_atom_site_label_2
_geom_bond_distance
_geom_bond_site_symmetry_2
_ccdc_geom_bond_type
C1     H2      0.929   .     S
C1     C3      1.382   .     S
C1     N34     1.323   5     D
C3     H4      0.930   .     S
C3     C35     1.355   5     D
O5     Zn33    2.036   1_655 S
O5     C26     1.247   .     D
C6     H7      0.931   .     S
C6     C8      1.380   .     S
C6     C24     1.361   .     D
C8     H9      0.930   .     S
C8     C25     1.354   .     D
O10    Zn33    2.036   5     S
O10    C30     1.247   .     D
C11    H12     0.931   .     S
C11    C13     1.380   .     S
C11    C28     1.361   .     D
C13    H14     0.930   .     S
C13    C29     1.354   .     D
N15    Zn31    2.010   .     S
N15    C16     1.368   .     S
N15    C19     1.368   3_656 D
C16    C17     1.443   .     S
C16    C23     1.392   .     D
C17    H18     0.931   .     S
C17    C20     1.339   3_656 D
C19    N15     1.368   3_656 D
C19    C20     1.443   .     S
C19    C27     1.392   .     D
C20    H21     0.931   .     S
C20    C17     1.339   3_656 D
H22    O32     1.109   3_656 S
C23    C16     1.392   4_556 D
C23    C24     1.495   .     S
C24    C6      1.361   4_556 D
C25    C8      1.354   4_556 D
C25    C26     1.511   .     S
C26    O5      1.247   4_556 D
C27    C19     1.392   3_656 D
C27    C28     1.495   .     S
C28    C11     1.361   3_656 D
C29    C13     1.354   3_656 D
C29    C30     1.511   .     S
C30    O10     1.247   3_656 D
Zn31   N15     2.010   2_655 S
Zn31   N15     2.010   3_656 S
Zn31   N15     2.010   4_556 S
O32    H22     1.109   3_656 S
O32    H22     1.109   4_556 S
Zn33   N34     2.058   .     S
Zn33   O5      2.036   1_455 S
Zn33   O5      2.036   2_655 S
Zn33   O10     2.036   5_445 S
Zn33   O10     2.036   6     S
Zn33   Zn33    2.728   3_556 S
N34    C1      1.323   5_445 D
N34    C1      1.323   6     D
C35    C3      1.355   5_445 D
C35    C3      1.355   6     D
C35    C35     1.472   3     S
