# generated using pymatgen
data_Gd2S3
_symmetry_space_group_name_H-M   'P 1'
_cell_length_a   3.92356888
_cell_length_b   10.55937388
_cell_length_c   10.76914874
_cell_angle_alpha   90.00000000
_cell_angle_beta   90.00000000
_cell_angle_gamma   90.00000000
_symmetry_Int_Tables_number   1
_chemical_formula_structural   Gd2S3
_chemical_formula_sum   'Gd8 S12'
_cell_volume   446.170471425
_cell_formula_units_Z   4
loop_
 _symmetry_equiv_pos_site_id
 _symmetry_equiv_pos_as_xyz
  1  'x, y, z'
loop_
 _atom_site_type_symbol
 _atom_site_label
 _atom_site_symmetry_multiplicity
 _atom_site_fract_x
 _atom_site_fract_y
 _atom_site_fract_z
 _atom_site_occupancy
  Gd  Gd1  1  0.250000  0.813981  0.490856  1
  Gd  Gd2  1  0.250000  0.004954  0.809005  1
  Gd  Gd3  1  0.750000  0.313981  0.009144  1
  Gd  Gd4  1  0.250000  0.495046  0.309005  1
  Gd  Gd5  1  0.750000  0.186019  0.509144  1
  Gd  Gd6  1  0.750000  0.995046  0.190995  1
  Gd  Gd7  1  0.750000  0.504954  0.690995  1
  Gd  Gd8  1  0.250000  0.686019  0.990856  1
  S  S9  1  0.750000  0.302855  0.272377  1
  S  S10  1  0.250000  0.802855  0.227623  1
  S  S11  1  0.250000  0.127306  0.046565  1
  S  S12  1  0.750000  0.627306  0.453435  1
  S  S13  1  0.750000  0.555763  0.120111  1
  S  S14  1  0.250000  0.055763  0.379889  1
  S  S15  1  0.750000  0.197145  0.772377  1
  S  S16  1  0.250000  0.372694  0.546565  1
  S  S17  1  0.750000  0.944237  0.620111  1
  S  S18  1  0.250000  0.444237  0.879889  1
  S  S19  1  0.750000  0.872694  0.953435  1
  S  S20  1  0.250000  0.697145  0.727623  1
