# generated using pymatgen
data_La2S3
_symmetry_space_group_name_H-M   'P 1'
_cell_length_a   8.76579041
_cell_length_b   8.76579041
_cell_length_c   26.16510135
_cell_angle_alpha   90.00000000
_cell_angle_beta   90.00000000
_cell_angle_gamma   90.00000000
_symmetry_Int_Tables_number   1
_chemical_formula_structural   La2S3
_chemical_formula_sum   'La32 S48'
_cell_volume   2010.50235395
_cell_formula_units_Z   16
loop_
 _symmetry_equiv_pos_site_id
 _symmetry_equiv_pos_as_xyz
  1  'x, y, z'
loop_
 _atom_site_type_symbol
 _atom_site_label
 _atom_site_symmetry_multiplicity
 _atom_site_fract_x
 _atom_site_fract_y
 _atom_site_fract_z
 _atom_site_occupancy
  La  La1  1  0.000000  0.500000  0.084993  1
  La  La2  1  0.379359  0.750000  0.125000  1
  La  La3  1  0.258643  0.359682  0.211246  1
  La  La4  1  0.000000  0.000000  0.165007  1
  La  La5  1  0.741357  0.640318  0.211246  1
  La  La6  1  0.620641  0.250000  0.125000  1
  La  La7  1  0.859682  0.241357  0.288754  1
  La  La8  1  0.750000  0.879359  0.375000  1
  La  La9  1  0.500000  0.500000  0.334993  1
  La  La10  1  0.250000  0.120641  0.375000  1
  La  La11  1  0.140318  0.758643  0.288754  1
  La  La12  1  0.000000  0.500000  0.415007  1
  La  La13  1  0.359682  0.758643  0.461246  1
  La  La14  1  0.241357  0.359682  0.538754  1
  La  La15  1  0.758643  0.640318  0.538754  1
  La  La16  1  0.640318  0.241357  0.461246  1
  La  La17  1  0.500000  0.000000  0.584993  1
  La  La18  1  0.879359  0.250000  0.625000  1
  La  La19  1  0.758643  0.859682  0.711246  1
  La  La20  1  0.500000  0.500000  0.665007  1
  La  La21  1  0.241357  0.140318  0.711246  1
  La  La22  1  0.120641  0.750000  0.625000  1
  La  La23  1  0.359682  0.741357  0.788754  1
  La  La24  1  0.250000  0.379359  0.875000  1
  La  La25  1  0.000000  0.000000  0.834993  1
  La  La26  1  0.750000  0.620641  0.875000  1
  La  La27  1  0.640318  0.258643  0.788754  1
  La  La28  1  0.500000  0.000000  0.915007  1
  La  La29  1  0.859682  0.258643  0.961246  1
  La  La30  1  0.741357  0.859682  0.038754  1
  La  La31  1  0.258643  0.140318  0.038754  1
  La  La32  1  0.140318  0.741357  0.961246  1
  S  S33  1  0.682381  0.572811  0.105358  1
  S  S34  1  0.071049  0.823520  0.066818  1
  S  S35  1  0.071049  0.676480  0.183182  1
  S  S36  1  0.928951  0.176480  0.066818  1
  S  S37  1  0.928951  0.323520  0.183182  1
  S  S38  1  0.682381  0.927189  0.144642  1
  S  S39  1  0.317619  0.427189  0.105358  1
  S  S40  1  0.317619  0.072811  0.144642  1
  S  S41  1  0.167099  0.080779  0.266610  1
  S  S42  1  0.580779  0.332901  0.233390  1
  S  S43  1  0.572811  0.182381  0.355358  1
  S  S44  1  0.419221  0.667099  0.233390  1
  S  S45  1  0.427189  0.817619  0.355358  1
  S  S46  1  0.832901  0.919221  0.266610  1
  S  S47  1  0.176480  0.428951  0.316818  1
  S  S48  1  0.823520  0.571049  0.316818  1
  S  S49  1  0.676480  0.571049  0.433182  1
  S  S50  1  0.072811  0.817619  0.394642  1
  S  S51  1  0.927189  0.182381  0.394642  1
  S  S52  1  0.080779  0.667099  0.516610  1
  S  S53  1  0.919221  0.332901  0.516610  1
  S  S54  1  0.323520  0.428951  0.433182  1
  S  S55  1  0.667099  0.919221  0.483390  1
  S  S56  1  0.332901  0.080779  0.483390  1
  S  S57  1  0.182381  0.072811  0.605358  1
  S  S58  1  0.571049  0.323520  0.566818  1
  S  S59  1  0.571049  0.176480  0.683182  1
  S  S60  1  0.428951  0.676480  0.566818  1
  S  S61  1  0.428951  0.823520  0.683182  1
  S  S62  1  0.182381  0.427189  0.644642  1
  S  S63  1  0.817619  0.927189  0.605358  1
  S  S64  1  0.817619  0.572811  0.644642  1
  S  S65  1  0.667099  0.580779  0.766610  1
  S  S66  1  0.080779  0.832901  0.733390  1
  S  S67  1  0.072811  0.682381  0.855358  1
  S  S68  1  0.919221  0.167099  0.733390  1
  S  S69  1  0.927189  0.317619  0.855358  1
  S  S70  1  0.332901  0.419221  0.766610  1
  S  S71  1  0.676480  0.928951  0.816818  1
  S  S72  1  0.323520  0.071049  0.816818  1
  S  S73  1  0.176480  0.071049  0.933182  1
  S  S74  1  0.572811  0.317619  0.894642  1
  S  S75  1  0.427189  0.682381  0.894642  1
  S  S76  1  0.580779  0.167099  0.016610  1
  S  S77  1  0.419221  0.832901  0.016610  1
  S  S78  1  0.823520  0.928951  0.933182  1
  S  S79  1  0.167099  0.419221  0.983390  1
  S  S80  1  0.832901  0.580779  0.983390  1
